/*--------------------------------*- C++ -*----------------------------------*\
| =========                 |                                                 |
| \\      /  F ield         | foam-extend: Open Source CFD                    |
|  \\    /   O peration     | Version:     4.0                                |
|   \\  /    A nd           | Web:         http://www.foam-extend.org         |
|    \\/     M anipulation  |                                                 |
\*---------------------------------------------------------------------------*/
FoamFile
{
    version     2.0;
    format      ascii;
    class       polyBoundaryMesh;
    location    "constant/polyMesh";
    object      boundary;
}
// * * * * * * * * * * * * * * * * * * * * * * * * * * * * * * * * * * * * * //

6
(
    top
    {
        type            wall;
        nFaces          9;
        startFace       54;
    }
    left
    {
        type            wall;
        nFaces          9;
        startFace       63;
    }
    right
    {
        type            wall;
        nFaces          9;
        startFace       72;
    }
    bottom
    {
        type            wall;
        nFaces          9;
        startFace       81;
    }
    back
    {
        type            wall;
        nFaces          9;
        startFace       90;
    }
    front
    {
        type            wall;
        nFaces          9;
        startFace       99;
    }
)


// ************************************************************************* //
