/*--------------------------------*- C++ -*----------------------------------*\
| =========                 |                                                 |
| \\      /  F ield         | foam-extend: Open Source CFD                    |
|  \\    /   O peration     | Version:     4.0                                |
|   \\  /    A nd           | Web:         http://www.foam-extend.org         |
|    \\/     M anipulation  |                                                 |
\*---------------------------------------------------------------------------*/
FoamFile
{
    version     2.0;
    format      ascii;
    class       polyBoundaryMesh;
    location    "constant/polyMesh";
    object      boundary;
}
// * * * * * * * * * * * * * * * * * * * * * * * * * * * * * * * * * * * * * //

6
(
    left
    {
        type            wall;
        nFaces          60;
        startFace       7860;
    }
    right
    {
        type            wall;
        nFaces          60;
        startFace       7920;
    }
    bottom
    {
        type            wall;
        nFaces          60;
        startFace       7980;
    }
    top
    {
        type            wall;
        nFaces          60;
        startFace       8040;
    }
    hole
    {
        type            wall;
        nFaces          40;
        startFace       8100;
    }
    frontAndBack
    {
        type            empty;
        nFaces          8000;
        startFace       8140;
    }
)


// ************************************************************************* //
