/*--------------------------------*- C++ -*----------------------------------*\
| =========                 |                                                 |
| \\      /  F ield         | OpenFOAM Extend Project: Open Source CFD        |
|  \\    /   O peration     | Version:  1.6-ext                               |
|   \\  /    A nd           | Web:      www.extend-project.de                 |
|    \\/     M anipulation  |                                                 |
\*---------------------------------------------------------------------------*/
FoamFile
{
    version     2.0;
    format      ascii;
    class       dictionary;
    location    "constant/polyMesh";
    object      blockMeshDict;
}
// * * * * * * * * * * * * * * * * * * * * * * * * * * * * * * * * * * * * * //

convertToMeters 1;

vertices
(
 (0 0 0)
 (1 0 0)
 (1 2 0)
 (0 2 0)
 (0 0 1)
 (1 0 1)
 (1 2 1)
 (0 2 1)
);

blocks
(
 hex (0 1 2 3 4 5 6 7) (8 16 1) simpleGrading (1 1 1)
);

edges
(
);

patches
(
 symmetryPlane top
 (
  (2 3 7 6)
  )

 patch left
 (
  (3 0 4 7)
  )

 patch right
 (
  (1 2 6 5)
  )

 symmetryPlane bottom
 (
  (0 1 5 4)
  )

 patch front
 (
  (7 6 5 4)
  )

 patch back
 (
  (0 1 2 3)
  )
 );

mergePatchPairs
(
);

// ************************************************************************* //
