/*--------------------------------*- C++ -*----------------------------------*\
| =========                 |                                                 |
| \\      /  F ield         | foam-extend: Open Source CFD                    |
|  \\    /   O peration     | Version:     4.0                                |
|   \\  /    A nd           | Web:         http://www.foam-extend.org         |
|    \\/     M anipulation  |                                                 |
\*---------------------------------------------------------------------------*/
FoamFile
{
    version     2.0;
    format      ascii;
    class       polyBoundaryMesh;
    location    "constant/polyMesh";
    object      boundary;
}
// * * * * * * * * * * * * * * * * * * * * * * * * * * * * * * * * * * * * * //

6
(
    top
    {
        type            patch;
        nFaces          300;
        startFace       8685;
    }
    left
    {
        type            patch;
        nFaces          15;
        startFace       8985;
    }
    right
    {
        type            patch;
        nFaces          15;
        startFace       9000;
    }
    bottom
    {
        type            patch;
        nFaces          300;
        startFace       9015;
    }
    front
    {
        type            empty;
        nFaces          4500;
        startFace       9315;
    }
    back
    {
        type            empty;
        nFaces          4500;
        startFace       13815;
    }
)


// ************************************************************************* //
