/*--------------------------------*- C++ -*----------------------------------*\
| =========                 |                                                 |
| \\      /  F ield         | OpenFOAM Extend Project: Open Source CFD        |
|  \\    /   O peration     | Version:  1.6-ext                               |
|   \\  /    A nd           | Web:      www.extend-project.de                 |
|    \\/     M anipulation  |                                                 |
\*---------------------------------------------------------------------------*/
FoamFile
{
    version     2.0;
    format      ascii;
    class       volVectorField;
    location    "0";
    object      D;
}
// * * * * * * * * * * * * * * * * * * * * * * * * * * * * * * * * * * * * * //

dimensions      [0 1 0 0 0 0 0];

internalField   uniform (0 0 0);

boundaryField
{
    right
    {
        type             analyticalShearDisplacement; 
        shearFactor      0.45;
        value            uniform ( 0 0 0 );
    }

    top
    {
        //type            fixedDisplacement;
        //type            solidSymmetry;
        //patchType       symmetryPlane;
        //value           uniform (0.3333333333333 0 0);

        type            analyticalShearDisplacement;
        shearFactor      0.45;
        value           uniform (0 0 0);
    }

    bottom
    {
        type            fixedDisplacement;//solidSymmetry;
        value           uniform (0 0 0);
    }

    left
    {
        //type            fixedDisplacement; //solidSymmetry;
        //patchType       symmetryPlane;

        type            analyticalShearDisplacement;
        shearFactor      0.45;
        value           uniform (0 0 0);
    }

    back
    {
        type            empty; //solidSymmetry;
        //patchType       symmetryPlane;

        value           uniform (0 0 0);
    }

    front
    {
        type            empty; //solidTraction;
        traction        uniform ( 0 0 0 );
        pressure        uniform 0;
        value           uniform (0 0 0);
    }
}

// ************************************************************************* //
