/*--------------------------------*- C++ -*----------------------------------*\
| =========                 |                                                 |
| \\      /  F ield         | foam-extend: Open Source CFD                    |
|  \\    /   O peration     | Version:     3.2                                |
|   \\  /    A nd           | Web:         http://www.foam-extend.org         |
|    \\/     M anipulation  | For copyright notice see file Copyright         |
\*---------------------------------------------------------------------------*/
FoamFile
{
    version     2.0;
    format      ascii;
    class       dictionary;
    location    "constant";
    object      solidProperties;
}
// * * * * * * * * * * * * * * * * * * * * * * * * * * * * * * * * * * * * * //

//solidModel     nonLinearGeometryUpdatedLagrangian;
solidModel     nonLinearGeometryTotalLagrangianTotalDisplacement;
//solidModel     nonLinearGeometryTotalLagrangian;
//solidModel     unsNonLinearGeometryUpdatedLagrangian;

"nonLinearGeometryUpdatedLagrangianCoeffs|nonLinearGeometryTotalLagrangianTotalDisplacementCoeffs|nonLinearGeometryTotalLagrangianCoeffs"
{
    // Maximum number of momentum correctors
    //nCorrectors             5000; // Original
    nCorrectors             1;
    //numericalTangent        true;
    //relaxationMethod_       QuasiNewton; //Aitken;//QuasiNewton;

    // Solution tolerance for displacement
    //solutionTolerance       1e-14;
    solutionTolerance       1e-20;

    // Alternative solution tolerance for displacement
    //alternativeTolerance    1e-15;
    alternativeTolerance    1e-20;

    // Material law solution tolerance
    //materialTolerance       1e-05;

    // Write frequency for the residuals
    infoFrequency           1;

    // Stabilise the hydrostatic pressure calculation with smoothing
    //stabilisePressure     no;
}


// ************************************************************************* //
