/*--------------------------------*- C++ -*----------------------------------*\
| =========                 |                                                 |
| \\      /  F ield         | foam-extend: Open Source CFD                    |
|  \\    /   O peration     | Version:     4.0                                |
|   \\  /    A nd           | Web:         http://www.foam-extend.org         |
|    \\/     M anipulation  |                                                 |
\*---------------------------------------------------------------------------*/
FoamFile
{
    version     2.0;
    format      ascii;
    class       polyBoundaryMesh;
    location    "constant/polyMesh";
    object      boundary;
}
// * * * * * * * * * * * * * * * * * * * * * * * * * * * * * * * * * * * * * //

6
(
    top
    {
        type            patch;
        nFaces          8;
        startFace       952;
    }
    left
    {
        type            patch;
        nFaces          64;
        startFace       960;
    }
    right
    {
        type            patch;
        nFaces          64;
        startFace       1024;
    }
    bottom
    {
        type            patch;
        nFaces          8;
        startFace       1088;
    }
    front
    {
        type            empty;
        nFaces          512;
        startFace       1096;
    }
    back
    {
        type            empty;
        nFaces          512;
        startFace       1608;
    }
)


// ************************************************************************* //
