/*--------------------------------*- C++ -*----------------------------------*\
| =========                 |                                                 |
| \\      /  F ield         | foam-extend: Open Source CFD                    |
|  \\    /   O peration     | Version:     4.0                                |
|   \\  /    A nd           | Web:         http://www.foam-extend.org         |
|    \\/     M anipulation  |                                                 |
\*---------------------------------------------------------------------------*/
FoamFile
{
    version     2.0;
    format      ascii;
    class       polyBoundaryMesh;
    location    "constant/polyMesh";
    object      boundary;
}
// * * * * * * * * * * * * * * * * * * * * * * * * * * * * * * * * * * * * * //

6
(
    left
    {
        type            wall;
        nFaces          15;
        startFace       465;
    }
    right
    {
        type            wall;
        nFaces          15;
        startFace       480;
    }
    bottom
    {
        type            wall;
        nFaces          15;
        startFace       495;
    }
    top
    {
        type            wall;
        nFaces          15;
        startFace       510;
    }
    hole
    {
        type            wall;
        nFaces          10;
        startFace       525;
    }
    frontAndBack
    {
        type            empty;
        nFaces          500;
        startFace       535;
    }
)


// ************************************************************************* //
