/*--------------------------------*- C++ -*----------------------------------*\
| =========                 |                                                 |
| \\      /  F ield         | foam-extend: Open Source CFD                    |
|  \\    /   O peration     | Version:     4.0                                |
|   \\  /    A nd           | Web:         http://www.foam-extend.org         |
|    \\/     M anipulation  |                                                 |
\*---------------------------------------------------------------------------*/
FoamFile
{
    version     2.0;
    format      ascii;
    class       polyBoundaryMesh;
    location    "constant/polyMesh";
    object      boundary;
}
// * * * * * * * * * * * * * * * * * * * * * * * * * * * * * * * * * * * * * //

6
(
    left
    {
        type            wall;
        nFaces          45;
        startFace       4395;
    }
    right
    {
        type            wall;
        nFaces          45;
        startFace       4440;
    }
    bottom
    {
        type            wall;
        nFaces          45;
        startFace       4485;
    }
    top
    {
        type            wall;
        nFaces          45;
        startFace       4530;
    }
    hole
    {
        type            wall;
        nFaces          30;
        startFace       4575;
    }
    frontAndBack
    {
        type            empty;
        nFaces          4500;
        startFace       4605;
    }
)


// ************************************************************************* //
